REMARK SMILES Cn1c(=O)c2c(ncn2C)n(C)c1=O
REMARK SMILES IDX 10 1 9 2 8 3 7 4 6 5 11 6 12 7 13 8 14 9 2 10 1 11 3 12 4 13
REMARK SMILES IDX 5 14
REMARK H PARENT
REMARK Flexibility Score: inf
ROOT
ATOM      1  C   UNL A   1      -3.227  -1.189   0.022  1.00  0.00     0.151 C 
ATOM      2  N   UNL A   1      -2.258  -0.098   0.015  1.00  0.00    -0.328 N 
ATOM      3  C   UNL A   1      -2.532   1.229   0.008  1.00  0.00     0.202 A 
ATOM      4  N   UNL A   1      -1.408   1.989   0.004  1.00  0.00    -0.218 NA
ATOM      5  C   UNL A   1      -0.410   1.084   0.008  1.00  0.00     0.167 A 
ATOM      6  N   UNL A   1       0.927   1.337   0.006  1.00  0.00    -0.279 N 
ATOM      7  C   UNL A   1       1.447   2.711  -0.001  1.00  0.00     0.157 C 
ATOM      8  C   UNL A   1       1.794   0.251   0.012  1.00  0.00     0.332 A 
ATOM      9  O   UNL A   1       3.000   0.446   0.010  1.00  0.00    -0.247 OA
ATOM     10  N   UNL A   1       1.298  -1.056   0.019  1.00  0.00    -0.261 N 
ATOM     11  C   UNL A   1       2.204  -2.216   0.024  1.00  0.00     0.159 C 
ATOM     12  C   UNL A   1      -0.072  -1.277   0.021  1.00  0.00     0.282 A 
ATOM     13  O   UNL A   1      -0.528  -2.409   0.027  1.00  0.00    -0.267 OA
ATOM     14  C   UNL A   1      -0.915  -0.173   0.015  1.00  0.00     0.152 A 
ENDROOT
TORSDOF 0
