MODEL 1
REMARK VINA RESULT:     0.000      0.000      0.000
REMARK INTER + INTRA:           0.000
REMARK INTER:                   0.000
REMARK INTRA:                   0.000
REMARK UNBOUND:                 0.000
REMARK SMILES Cn1c(=O)c2c(ncn2C)n(C)c1=O
REMARK SMILES IDX 10 1 9 2 8 3 7 4 6 5 11 6 12 7 13 8 14 9 2 10 1 11 3 12 4 13
REMARK SMILES IDX 5 14
REMARK H PARENT
REMARK Flexibility Score: inf
ROOT
ATOM      1  C   UNL A   1       3.114   0.983  -2.620  1.00  0.00     0.151 C 
ATOM      2  N   UNL A   1       2.772  -0.416  -2.385  1.00  0.00    -0.328 N 
ATOM      3  C   UNL A   1       3.009  -1.459  -3.217  1.00  0.00     0.202 A 
ATOM      4  N   UNL A   1       2.570  -2.637  -2.706  1.00  0.00    -0.218 NA
ATOM      5  C   UNL A   1       2.044  -2.294  -1.515  1.00  0.00     0.167 A 
ATOM      6  N   UNL A   1       1.466  -3.122  -0.603  1.00  0.00    -0.279 N 
ATOM      7  C   UNL A   1       1.351  -4.567  -0.845  1.00  0.00     0.157 C 
ATOM      8  C   UNL A   1       0.984  -2.560   0.573  1.00  0.00     0.332 A 
ATOM      9  O   UNL A   1       0.459  -3.278   1.410  1.00  0.00    -0.247 OA
ATOM     10  N   UNL A   1       1.095  -1.185   0.802  1.00  0.00    -0.261 N 
ATOM     11  C   UNL A   1       0.588  -0.576   2.042  1.00  0.00     0.159 C 
ATOM     12  C   UNL A   1       1.691  -0.370  -0.150  1.00  0.00     0.282 A 
ATOM     13  O   UNL A   1       1.798   0.832   0.029  1.00  0.00    -0.267 OA
ATOM     14  C   UNL A   1       2.163  -0.959  -1.315  1.00  0.00     0.152 A 
ENDROOT
TORSDOF 0
ENDMDL
MODEL 2
REMARK VINA RESULT:     0.000      5.443      7.276
REMARK INTER + INTRA:           0.000
REMARK INTER:                   0.000
REMARK INTRA:                   0.000
REMARK UNBOUND:                 0.000
REMARK SMILES Cn1c(=O)c2c(ncn2C)n(C)c1=O
REMARK SMILES IDX 10 1 9 2 8 3 7 4 6 5 11 6 12 7 13 8 14 9 2 10 1 11 3 12 4 13
REMARK SMILES IDX 5 14
REMARK H PARENT
REMARK Flexibility Score: inf
ROOT
ATOM      1  C   UNL A   1      -4.582  -0.816   4.384  1.00  0.00     0.151 C 
ATOM      2  N   UNL A   1      -3.169  -0.694   4.040  1.00  0.00    -0.328 N 
ATOM      3  C   UNL A   1      -2.340  -1.693   3.650  1.00  0.00     0.202 A 
ATOM      4  N   UNL A   1      -1.081  -1.253   3.401  1.00  0.00    -0.218 NA
ATOM      5  C   UNL A   1      -1.149   0.070   3.650  1.00  0.00     0.167 A 
ATOM      6  N   UNL A   1      -0.140   0.977   3.547  1.00  0.00    -0.279 N 
ATOM      7  C   UNL A   1       1.210   0.577   3.127  1.00  0.00     0.157 C 
ATOM      8  C   UNL A   1      -0.425   2.302   3.852  1.00  0.00     0.332 A 
ATOM      9  O   UNL A   1       0.461   3.140   3.770  1.00  0.00    -0.247 OA
ATOM     10  N   UNL A   1      -1.710   2.681   4.252  1.00  0.00    -0.261 N 
ATOM     11  C   UNL A   1      -2.025   4.081   4.580  1.00  0.00     0.159 C 
ATOM     12  C   UNL A   1      -2.715   1.729   4.346  1.00  0.00     0.282 A 
ATOM     13  O   UNL A   1      -3.844   2.036   4.692  1.00  0.00    -0.267 OA
ATOM     14  C   UNL A   1      -2.402   0.412   4.035  1.00  0.00     0.152 A 
ENDROOT
TORSDOF 0
ENDMDL
MODEL 3
REMARK VINA RESULT:     0.000      3.908      6.219
REMARK INTER + INTRA:           0.000
REMARK INTER:                   0.000
REMARK INTRA:                   0.000
REMARK UNBOUND:                 0.000
REMARK SMILES Cn1c(=O)c2c(ncn2C)n(C)c1=O
REMARK SMILES IDX 10 1 9 2 8 3 7 4 6 5 11 6 12 7 13 8 14 9 2 10 1 11 3 12 4 13
REMARK SMILES IDX 5 14
REMARK H PARENT
REMARK Flexibility Score: inf
ROOT
ATOM      1  C   UNL A   1      -4.582  -0.816   4.384  1.00  0.00     0.151 C 
ATOM      2  N   UNL A   1      -3.655  -1.179   3.317  1.00  0.00    -0.328 N 
ATOM      3  C   UNL A   1      -3.519  -2.398   2.742  1.00  0.00     0.202 A 
ATOM      4  N   UNL A   1      -2.568  -2.410   1.774  1.00  0.00    -0.218 NA
ATOM      5  C   UNL A   1      -2.107  -1.144   1.763  1.00  0.00     0.167 A 
ATOM      6  N   UNL A   1      -1.133  -0.632   0.962  1.00  0.00    -0.279 N 
ATOM      7  C   UNL A   1      -0.444  -1.464  -0.034  1.00  0.00     0.157 C 
ATOM      8  C   UNL A   1      -0.806   0.710   1.112  1.00  0.00     0.332 A 
ATOM      9  O   UNL A   1       0.064   1.198   0.407  1.00  0.00    -0.247 OA
ATOM     10  N   UNL A   1      -1.462   1.500   2.060  1.00  0.00    -0.261 N 
ATOM     11  C   UNL A   1      -1.126   2.923   2.232  1.00  0.00     0.159 C 
ATOM     12  C   UNL A   1      -2.451   0.945   2.860  1.00  0.00     0.282 A 
ATOM     13  O   UNL A   1      -3.037   1.616   3.695  1.00  0.00    -0.267 OA
ATOM     14  C   UNL A   1      -2.757  -0.399   2.688  1.00  0.00     0.152 A 
ENDROOT
TORSDOF 0
ENDMDL
MODEL 4
REMARK VINA RESULT:     0.000      4.145      5.691
REMARK INTER + INTRA:           0.000
REMARK INTER:                   0.000
REMARK INTRA:                   0.000
REMARK UNBOUND:                 0.000
REMARK SMILES Cn1c(=O)c2c(ncn2C)n(C)c1=O
REMARK SMILES IDX 10 1 9 2 8 3 7 4 6 5 11 6 12 7 13 8 14 9 2 10 1 11 3 12 4 13
REMARK SMILES IDX 5 14
REMARK H PARENT
REMARK Flexibility Score: inf
ROOT
ATOM      1  C   UNL A   1      -4.200  -1.088   2.938  1.00  0.00     0.151 C 
ATOM      2  N   UNL A   1      -3.795  -1.867   1.772  1.00  0.00    -0.328 N 
ATOM      3  C   UNL A   1      -4.164  -3.138   1.478  1.00  0.00     0.202 A 
ATOM      4  N   UNL A   1      -3.617  -3.580   0.318  1.00  0.00    -0.218 NA
ATOM      5  C   UNL A   1      -2.885  -2.533  -0.110  1.00  0.00     0.167 A 
ATOM      6  N   UNL A   1      -2.132  -2.465  -1.241  1.00  0.00    -0.279 N 
ATOM      7  C   UNL A   1      -2.038  -3.602  -2.168  1.00  0.00     0.157 C 
ATOM      8  C   UNL A   1      -1.451  -1.282  -1.499  1.00  0.00     0.332 A 
ATOM      9  O   UNL A   1      -0.766  -1.192  -2.507  1.00  0.00    -0.247 OA
ATOM     10  N   UNL A   1      -1.541  -0.202  -0.617  1.00  0.00    -0.261 N 
ATOM     11  C   UNL A   1      -0.823   1.057  -0.876  1.00  0.00     0.159 C 
ATOM     12  C   UNL A   1      -2.318  -0.305   0.528  1.00  0.00     0.282 A 
ATOM     13  O   UNL A   1      -2.412   0.625   1.313  1.00  0.00    -0.267 OA
ATOM     14  C   UNL A   1      -2.989  -1.499   0.760  1.00  0.00     0.152 A 
ENDROOT
TORSDOF 0
ENDMDL
MODEL 5
REMARK VINA RESULT:     0.000      2.880      4.410
REMARK INTER + INTRA:           0.000
REMARK INTER:                   0.000
REMARK INTRA:                   0.000
REMARK UNBOUND:                 0.000
REMARK SMILES Cn1c(=O)c2c(ncn2C)n(C)c1=O
REMARK SMILES IDX 10 1 9 2 8 3 7 4 6 5 11 6 12 7 13 8 14 9 2 10 1 11 3 12 4 13
REMARK SMILES IDX 5 14
REMARK H PARENT
REMARK Flexibility Score: inf
ROOT
ATOM      1  C   UNL A   1      -2.006  -2.272   1.554  1.00  0.00     0.151 C 
ATOM      2  N   UNL A   1      -1.601  -3.051   0.388  1.00  0.00    -0.328 N 
ATOM      3  C   UNL A   1      -1.969  -4.321   0.094  1.00  0.00     0.202 A 
ATOM      4  N   UNL A   1      -1.422  -4.763  -1.066  1.00  0.00    -0.218 NA
ATOM      5  C   UNL A   1      -0.690  -3.716  -1.494  1.00  0.00     0.167 A 
ATOM      6  N   UNL A   1       0.062  -3.649  -2.625  1.00  0.00    -0.279 N 
ATOM      7  C   UNL A   1       0.156  -4.785  -3.552  1.00  0.00     0.157 C 
ATOM      8  C   UNL A   1       0.744  -2.466  -2.883  1.00  0.00     0.332 A 
ATOM      9  O   UNL A   1       1.428  -2.375  -3.891  1.00  0.00    -0.247 OA
ATOM     10  N   UNL A   1       0.654  -1.385  -2.001  1.00  0.00    -0.261 N 
ATOM     11  C   UNL A   1       1.371  -0.126  -2.260  1.00  0.00     0.159 C 
ATOM     12  C   UNL A   1      -0.124  -1.489  -0.856  1.00  0.00     0.282 A 
ATOM     13  O   UNL A   1      -0.217  -0.559  -0.071  1.00  0.00    -0.267 OA
ATOM     14  C   UNL A   1      -0.794  -2.683  -0.624  1.00  0.00     0.152 A 
ENDROOT
TORSDOF 0
ENDMDL
MODEL 6
REMARK VINA RESULT:     0.000      4.212      4.835
REMARK INTER + INTRA:           0.000
REMARK INTER:                   0.000
REMARK INTRA:                   0.000
REMARK UNBOUND:                 0.000
REMARK SMILES Cn1c(=O)c2c(ncn2C)n(C)c1=O
REMARK SMILES IDX 10 1 9 2 8 3 7 4 6 5 11 6 12 7 13 8 14 9 2 10 1 11 3 12 4 13
REMARK SMILES IDX 5 14
REMARK H PARENT
REMARK Flexibility Score: inf
ROOT
ATOM      1  C   UNL A   1       2.374   3.344  -4.632  1.00  0.00     0.151 C 
ATOM      2  N   UNL A   1       2.830   3.250  -3.249  1.00  0.00    -0.328 N 
ATOM      3  C   UNL A   1       4.049   3.600  -2.772  1.00  0.00     0.202 A 
ATOM      4  N   UNL A   1       4.160   3.393  -1.436  1.00  0.00    -0.218 NA
ATOM      5  C   UNL A   1       2.958   2.896  -1.088  1.00  0.00     0.167 A 
ATOM      6  N   UNL A   1       2.554   2.520   0.156  1.00  0.00    -0.279 N 
ATOM      7  C   UNL A   1       3.448   2.627   1.317  1.00  0.00     0.157 C 
ATOM      8  C   UNL A   1       1.262   2.029   0.299  1.00  0.00     0.332 A 
ATOM      9  O   UNL A   1       0.870   1.683   1.404  1.00  0.00    -0.247 OA
ATOM     10  N   UNL A   1       0.412   1.929  -0.806  1.00  0.00    -0.261 N 
ATOM     11  C   UNL A   1      -0.959   1.410  -0.670  1.00  0.00     0.159 C 
ATOM     12  C   UNL A   1       0.857   2.321  -2.060  1.00  0.00     0.282 A 
ATOM     13  O   UNL A   1       0.133   2.243  -3.040  1.00  0.00    -0.267 OA
ATOM     14  C   UNL A   1       2.153   2.808  -2.174  1.00  0.00     0.152 A 
ENDROOT
TORSDOF 0
ENDMDL
MODEL 7
REMARK VINA RESULT:     0.000      3.595      4.846
REMARK INTER + INTRA:           0.000
REMARK INTER:                   0.000
REMARK INTRA:                   0.000
REMARK UNBOUND:                 0.000
REMARK SMILES Cn1c(=O)c2c(ncn2C)n(C)c1=O
REMARK SMILES IDX 10 1 9 2 8 3 7 4 6 5 11 6 12 7 13 8 14 9 2 10 1 11 3 12 4 13
REMARK SMILES IDX 5 14
REMARK H PARENT
REMARK Flexibility Score: inf
ROOT
ATOM      1  C   UNL A   1      -4.545  -1.187  -1.843  1.00  0.00     0.151 C 
ATOM      2  N   UNL A   1      -3.555  -1.708  -0.906  1.00  0.00    -0.328 N 
ATOM      3  C   UNL A   1      -3.787  -2.540   0.137  1.00  0.00     0.202 A 
ATOM      4  N   UNL A   1      -2.653  -2.842   0.819  1.00  0.00    -0.218 NA
ATOM      5  C   UNL A   1      -1.694  -2.163   0.161  1.00  0.00     0.167 A 
ATOM      6  N   UNL A   1      -0.365  -2.131   0.451  1.00  0.00    -0.279 N 
ATOM      7  C   UNL A   1       0.190  -2.884   1.585  1.00  0.00     0.157 C 
ATOM      8  C   UNL A   1       0.460  -1.362  -0.360  1.00  0.00     0.332 A 
ATOM      9  O   UNL A   1       1.658  -1.314  -0.125  1.00  0.00    -0.247 OA
ATOM     10  N   UNL A   1      -0.069  -0.647  -1.439  1.00  0.00    -0.261 N 
ATOM     11  C   UNL A   1       0.792   0.173  -2.306  1.00  0.00     0.159 C 
ATOM     12  C   UNL A   1      -1.430  -0.702  -1.706  1.00  0.00     0.282 A 
ATOM     13  O   UNL A   1      -1.914  -0.086  -2.641  1.00  0.00    -0.267 OA
ATOM     14  C   UNL A   1      -2.230  -1.479  -0.878  1.00  0.00     0.152 A 
ENDROOT
TORSDOF 0
ENDMDL
MODEL 8
REMARK VINA RESULT:     0.000      2.932      4.088
REMARK INTER + INTRA:           0.000
REMARK INTER:                   0.000
REMARK INTRA:                   0.000
REMARK UNBOUND:                 0.000
REMARK SMILES Cn1c(=O)c2c(ncn2C)n(C)c1=O
REMARK SMILES IDX 10 1 9 2 8 3 7 4 6 5 11 6 12 7 13 8 14 9 2 10 1 11 3 12 4 13
REMARK SMILES IDX 5 14
REMARK H PARENT
REMARK Flexibility Score: inf
ROOT
ATOM      1  C   UNL A   1      -3.198  -0.563  -1.079  1.00  0.00     0.151 C 
ATOM      2  N   UNL A   1      -2.033  -0.348  -1.932  1.00  0.00    -0.328 N 
ATOM      3  C   UNL A   1      -2.038  -0.116  -3.267  1.00  0.00     0.202 A 
ATOM      4  N   UNL A   1      -0.788   0.043  -3.768  1.00  0.00    -0.218 NA
ATOM      5  C   UNL A   1       0.009  -0.099  -2.691  1.00  0.00     0.167 A 
ATOM      6  N   UNL A   1       1.368  -0.027  -2.661  1.00  0.00    -0.279 N 
ATOM      7  C   UNL A   1       2.149   0.230  -3.878  1.00  0.00     0.157 C 
ATOM      8  C   UNL A   1       2.001  -0.204  -1.436  1.00  0.00     0.332 A 
ATOM      9  O   UNL A   1       3.220  -0.145  -1.377  1.00  0.00    -0.247 OA
ATOM     10  N   UNL A   1       1.256  -0.448  -0.279  1.00  0.00    -0.261 N 
ATOM     11  C   UNL A   1       1.913  -0.638   1.025  1.00  0.00     0.159 C 
ATOM     12  C   UNL A   1      -0.128  -0.515  -0.347  1.00  0.00     0.282 A 
ATOM     13  O   UNL A   1      -0.799  -0.727   0.650  1.00  0.00    -0.267 OA
ATOM     14  C   UNL A   1      -0.734  -0.335  -1.584  1.00  0.00     0.152 A 
ENDROOT
TORSDOF 0
ENDMDL
MODEL 9
REMARK VINA RESULT:     0.000      2.240      3.588
REMARK INTER + INTRA:           0.000
REMARK INTER:                   0.000
REMARK INTRA:                   0.000
REMARK UNBOUND:                 0.000
REMARK SMILES Cn1c(=O)c2c(ncn2C)n(C)c1=O
REMARK SMILES IDX 10 1 9 2 8 3 7 4 6 5 11 6 12 7 13 8 14 9 2 10 1 11 3 12 4 13
REMARK SMILES IDX 5 14
REMARK H PARENT
REMARK Flexibility Score: inf
ROOT
ATOM      1  C   UNL A   1      -2.347  -1.911   0.539  1.00  0.00     0.151 C 
ATOM      2  N   UNL A   1      -1.182  -1.697  -0.313  1.00  0.00    -0.328 N 
ATOM      3  C   UNL A   1      -1.187  -1.465  -1.648  1.00  0.00     0.202 A 
ATOM      4  N   UNL A   1       0.064  -1.306  -2.150  1.00  0.00    -0.218 NA
ATOM      5  C   UNL A   1       0.861  -1.448  -1.073  1.00  0.00     0.167 A 
ATOM      6  N   UNL A   1       2.219  -1.376  -1.043  1.00  0.00    -0.279 N 
ATOM      7  C   UNL A   1       3.001  -1.119  -2.260  1.00  0.00     0.157 C 
ATOM      8  C   UNL A   1       2.852  -1.552   0.182  1.00  0.00     0.332 A 
ATOM      9  O   UNL A   1       4.071  -1.494   0.241  1.00  0.00    -0.247 OA
ATOM     10  N   UNL A   1       2.108  -1.797   1.340  1.00  0.00    -0.261 N 
ATOM     11  C   UNL A   1       2.764  -1.987   2.643  1.00  0.00     0.159 C 
ATOM     12  C   UNL A   1       0.723  -1.864   1.272  1.00  0.00     0.282 A 
ATOM     13  O   UNL A   1       0.052  -2.076   2.269  1.00  0.00    -0.267 OA
ATOM     14  C   UNL A   1       0.117  -1.683   0.035  1.00  0.00     0.152 A 
ENDROOT
TORSDOF 0
ENDMDL
